REMARK  10 active torsions:
REMARK  status: ('A' for Active; 'I' for Inactive)
REMARK    1  A    between atoms: C5_5  and  N1_6 
REMARK    2  A    between atoms: N1_6  and  C6_8 
REMARK    3  A    between atoms: C9_11  and  O1_12 
REMARK    4  A    between atoms: O1_12  and  C10_13 
REMARK    5  A    between atoms: C10_13  and  C11_14 
REMARK    6  A    between atoms: C11_14  and  O2_15 
REMARK    7  A    between atoms: C13_17  and  O3_18 
REMARK    8  A    between atoms: O3_18  and  C14_19 
REMARK    9  A    between atoms: C14_19  and  C15_20 
REMARK   10  A    between atoms: C15_20  and  O4_21 
ROOT
HETATM    1  C1  AQ4 A 999      29.552  -1.989  53.496  1.00 82.82     0.018 C 
HETATM    2  C2  AQ4 A 999      28.841  -1.022  53.432  1.00 79.21    -0.078 C 
HETATM    3  C3  AQ4 A 999      27.989   0.094  53.366  1.00 77.10     0.019 A 
HETATM    4  C4  AQ4 A 999      26.606  -0.119  53.323  1.00 78.64     0.050 A 
HETATM    5  C5  AQ4 A 999      25.725   0.972  53.258  1.00 75.72     0.035 A 
HETATM    6  C20 AQ4 A 999      26.234   2.292  53.236  1.00 77.38     0.029 A 
HETATM    7  C21 AQ4 A 999      27.625   2.509  53.279  1.00 70.00     0.004 A 
HETATM    8  C22 AQ4 A 999      28.508   1.410  53.344  1.00 71.32     0.021 A 
ENDROOT
BRANCH   5   9
HETATM    9  N1  AQ4 A 999      24.289   0.712  53.215  1.00 63.33    -0.342 N 
ATOM     10  H1  AQ4 A 999      23.794   1.313  52.555  1.00  0.00     0.167 HD
BRANCH   9  11
HETATM   11  C6  AQ4 A 999      23.410  -0.217  53.908  1.00 56.92     0.119 A 
HETATM   12  C7  AQ4 A 999      22.037  -0.309  53.572  1.00 52.23     0.038 A 
HETATM   13  C8  AQ4 A 999      21.501   0.476  52.546  1.00 48.18     0.057 A 
HETATM   14  C18 AQ4 A 999      21.199  -1.222  54.264  1.00 53.51     0.050 A 
HETATM   15  C9  AQ4 A 999      20.143   0.376  52.218  1.00 52.11     0.103 A 
HETATM   16  C13 AQ4 A 999      19.301  -0.535  52.923  1.00 52.73     0.104 A 
HETATM   17  C17 AQ4 A 999      19.845  -1.318  53.942  1.00 59.83     0.070 A 
HETATM   18  N2  AQ4 A 999      21.747  -2.039  55.319  1.00 50.53    -0.351 N 
HETATM   19  C19 AQ4 A 999      23.117  -1.934  55.642  1.00 65.28     0.182 A 
ATOM     20  H2  AQ4 A 999      21.148  -2.689  55.829  1.00  0.00     0.166 HD
HETATM   21  N3  AQ4 A 999      23.943  -1.023  54.940  1.00 44.57    -0.338 N 
ATOM     22  H3  AQ4 A 999      24.931  -0.948  55.181  1.00  0.00     0.168 HD
BRANCH  15  23
HETATM   23  O1  AQ4 A 999      19.589   1.220  51.120  1.00 82.48    -0.346 OA
BRANCH  23  24
HETATM   24  C10 AQ4 A 999      20.550   1.362  50.041  1.00 83.98     0.201 C 
BRANCH  24  25
HETATM   25  C11 AQ4 A 999      20.235   2.645  49.262  1.00 91.80     0.193 C 
BRANCH  25  26
HETATM   26  O2  AQ4 A 999      18.990   2.485  48.543  1.00 96.57    -0.394 OA
HETATM   27  C12 AQ4 A 999      17.712   2.618  49.399  1.00 88.53     0.201 C 
ENDBRANCH  25  26
ENDBRANCH  24  25
ENDBRANCH  23  24
ENDBRANCH  15  23
BRANCH  16  28
HETATM   28  O3  AQ4 A 999      17.828  -0.679  52.597  1.00 83.95    -0.346 OA
BRANCH  28  29
HETATM   29  C14 AQ4 A 999      17.227   0.601  52.220  1.00 98.66     0.201 C 
BRANCH  29  30
HETATM   30  C15 AQ4 A 999      15.703   0.494  52.066  1.00102.19     0.193 C 
BRANCH  30  31
HETATM   31  O4  AQ4 A 999      15.108   0.167  53.335  1.00 79.31    -0.394 OA
HETATM   32  C16 AQ4 A 999      13.843  -0.695  53.221  1.00 92.17     0.201 C 
ENDBRANCH  30  31
ENDBRANCH  29  30
ENDBRANCH  28  29
ENDBRANCH  16  28
ENDBRANCH   9  11
ENDBRANCH   5   9
TORSDOF 10
